Skill-pair/dc-power-flow/ieee-118-bus.raw






<!DOCTYPE html>
<html
  lang="en"
  
  data-color-mode="auto" data-light-theme="light" data-dark-theme="dark"
  data-a11y-animated-images="system" data-a11y-link-underlines="true"
  
  >




  <head>
    <meta charset="utf-8">
  <link rel="dns-prefetch" href="https://github.githubassets.com">
  <link rel="dns-prefetch" href="https://avatars.githubusercontent.com">
  <link rel="dns-prefetch" href="https://github-cloud.s3.amazonaws.com">
  <link rel="dns-prefetch" href="https://user-images.githubusercontent.com/">
  <link rel="preconnect" href="https://github.githubassets.com" crossorigin>
  <link rel="preconnect" href="https://avatars.githubusercontent.com">

  


  <link crossorigin="anonymous" media="all" rel="stylesheet" href="https://github.githubassets.com/assets/light-0c8222dcd7a4f9b7.css" /><link crossorigin="anonymous" media="all" rel="stylesheet" href="https://github.githubassets.com/assets/light_high_contrast-51c0c6e0c085cc0f.css" /><link crossorigin="anonymous" media="all" rel="stylesheet" href="https://github.githubassets.com/assets/dark-fc6eec18532c3ae0.css" /><link crossorigin="anonymous" media="all" rel="stylesheet" href="https://github.githubassets.com/assets/dark_high_contrast-96d7b2bab5a6ae4e.css" /><link data-color-theme="light" crossorigin="anonymous" media="all" rel="stylesheet" data-href="https://github.githubassets.com/assets/light-0c8222dcd7a4f9b7.css" /><link data-color-theme="light_high_contrast" crossorigin="anonymous" media="all" rel="stylesheet" data-href="https://github.githubassets.com/assets/light_high_contrast-51c0c6e0c085cc0f.css" /><link data-color-theme="light_colorblind" crossorigin="anonymous" media="all" rel="stylesheet" data-href="https://github.githubassets.com/assets/light_colorblind-4dd12c5689d6b012.css" /><link data-color-theme="light_colorblind_high_contrast" crossorigin="anonymous" media="all" rel="stylesheet" data-href="https://github.githubassets.com/assets/light_colorblind_high_contrast-dfa0c9e22ba6ba2b.css" /><link data-color-theme="light_tritanopia" crossorigin="anonymous" media="all" rel="stylesheet" data-href="https://github.githubassets.com/assets/light_tritanopia-9fd9c8859395d1a8.css" /><link data-color-theme="light_tritanopia_high_contrast" crossorigin="anonymous" media="all" rel="stylesheet" data-href="https://github.githubassets.com/assets/light_tritanopia_high_contrast-9c32304a2a8ac631.css" /><link data-color-theme="dark" crossorigin="anonymous" media="all" rel="stylesheet" data-href="https://github.githubassets.com/assets/dark-fc6eec18532c3ae0.css" /><link data-color-theme="dark_high_contrast" crossorigin="anonymous" media="all" rel="stylesheet" data-href="https://github.githubassets.com/assets/dark_high_contrast-96d7b2bab5a6ae4e.css" /><link data-color-theme="dark_colorblind" crossorigin="anonymous" media="all" rel="stylesheet" data-href="https://github.githubassets.com/assets/dark_colorblind-0c6ca283d4d35cea.css" /><link data-color-theme="dark_colorblind_high_contrast" crossorigin="anonymous" media="all" rel="stylesheet" data-href="https://github.githubassets.com/assets/dark_colorblind_high_contrast-2dc46b4919fae81e.css" /><link data-color-theme="dark_tritanopia" crossorigin="anonymous" media="all" rel="stylesheet" data-href="https://github.githubassets.com/assets/dark_tritanopia-271332ec9362e8d3.css" /><link data-color-theme="dark_tritanopia_high_contrast" crossorigin="anonymous" media="all" rel="stylesheet" data-href="https://github.githubassets.com/assets/dark_tritanopia_high_contrast-eb5bb84e91d6d553.css" /><link data-color-theme="dark_dimmed" crossorigin="anonymous" media="all" rel="stylesheet" data-href="https://github.githubassets.com/assets/dark_dimmed-f3aa862f2ac7ead2.css" /><link data-color-theme="dark_dimmed_high_contrast" crossorigin="anonymous" media="all" rel="stylesheet" data-href="https://github.githubassets.com/assets/dark_dimmed_high_contrast-206b6b93f856629b.css" />

  <style type="text/css">
    :root {
      --tab-size-preference: 4;
    }

    pre, code {
      tab-size: var(--tab-size-preference);
    }
  </style>

    <link crossorigin="anonymous" media="all" rel="stylesheet" href="https://github.githubassets.com/assets/primer-primitives-10bf9dd67e3d70bd.css" />
    <link crossorigin="anonymous" media="all" rel="stylesheet" href="https://github.githubassets.com/assets/primer-0fcd9af82350aeda.css" />
    <link crossorigin="anonymous" media="all" rel="stylesheet" href="https://github.githubassets.com/assets/global-0bd78641c0a1f3e0.css" />
    <link crossorigin="anonymous" media="all" rel="stylesheet" href="https://github.githubassets.com/assets/github-c94ab8d1f22049a8.css" />
  <link crossorigin="anonymous" media="all" rel="stylesheet" href="https://github.githubassets.com/assets/repository-6ec84ae2261fecf8.css" />
<link crossorigin="anonymous" media="all" rel="stylesheet" href="https://github.githubassets.com/assets/code-2d31826944fd3be8.css" />

  

  <script type="application/json" id="client-env">{"locale":"en","featureFlags":["actions_custom_images_storage_billing_ui_visibility","actions_image_version_event","actions_service_container_command","alternate_user_config_repo","arianotify_comprehensive_migration","batch_suggested_changes","billing_discount_threshold_notification","code_scanning_all_branch_query","code_scanning_dfa_degraded_experience_notice","codespaces_prebuild_region_target_update","coding_agent_model_selection","coding_agent_model_selection_all_skus","comment_viewer_copy_raw_markdown","contentful_primer_code_blocks","copilot_agent_image_upload","copilot_agent_snippy","copilot_api_agentic_issue_marshal_yaml","copilot_ask_mode_dropdown","copilot_chat_attach_multiple_images","copilot_chat_clear_model_selection_for_default_change","copilot_chat_enable_tool_call_logs","copilot_chat_explain_error_user_model","copilot_chat_file_redirect","copilot_chat_input_commands","copilot_chat_opening_thread_switch","copilot_chat_reduce_quota_checks","copilot_chat_search_bar_redirect","copilot_chat_selection_attachments","copilot_chat_vision_in_claude","copilot_chat_vision_preview_gate","copilot_coding_agent_task_response","copilot_custom_copilots","copilot_custom_copilots_feature_preview","copilot_duplicate_thread","copilot_extensions_hide_in_dotcom_chat","copilot_extensions_removal_on_marketplace","copilot_features_sql_server_logo","copilot_features_zed_logo","copilot_file_block_ref_matching","copilot_ftp_hyperspace_upgrade_prompt","copilot_icebreakers_experiment_dashboard","copilot_icebreakers_experiment_hyperspace","copilot_immersive_code_block_transition_wrap","copilot_immersive_embedded","copilot_immersive_embedded_mode","copilot_immersive_file_block_transition_open","copilot_immersive_file_preview_keep_mounted","copilot_immersive_job_result_preview","copilot_immersive_layout_routes","copilot_immersive_structured_model_picker","copilot_immersive_task_hyperlinking","copilot_immersive_task_within_chat_thread","copilot_mc_cli_resume_any_users_task","copilot_mission_control_always_send_integration_id","copilot_mission_control_cli_resume_with_task_id","copilot_mission_control_decoupled_mode","copilot_mission_control_decoupled_mode_agent_tooltip","copilot_mission_control_initial_data_spinner","copilot_mission_control_scroll_to_bottom_button","copilot_mission_control_task_alive_updates","copilot_org_policy_page_focus_mode","copilot_redirect_header_button_to_agents","copilot_resource_panel","copilot_scroll_preview_tabs","copilot_share_active_subthread","copilot_spaces_ga","copilot_spaces_individual_policies_ga","copilot_spaces_pagination","copilot_spark_empty_state","copilot_spark_handle_nil_friendly_name","copilot_swe_agent_hide_model_picker_if_only_auto","copilot_swe_agent_pr_comment_model_picker","copilot_swe_agent_use_subagents","copilot_task_api_github_rest_style","copilot_unconfigured_is_inherited","copilot_usage_metrics_ga","copilot_workbench_slim_line_top_tabs","custom_instructions_file_references","custom_properties_consolidate_default_value_input","dashboard_indexeddb_caching","dashboard_lists_max_age_filter","dashboard_universe_2025_feedback_dialog","flex_cta_groups_mvp","global_nav_react","hyperspace_2025_logged_out_batch_1","hyperspace_2025_logged_out_batch_2","hyperspace_2025_logged_out_batch_3","ipm_global_transactional_message_agents","ipm_global_transactional_message_copilot","ipm_global_transactional_message_issues","ipm_global_transactional_message_prs","ipm_global_transactional_message_repos","ipm_global_transactional_message_spaces","issue_cca_modal_open","issue_cca_visualization","issue_fields_global_search","issue_fields_visibility_indicator","issue_fields_visibility_settings","issues_dashboard_inp_optimization","issues_diff_based_label_updates","issues_expanded_file_types","issues_index_semantic_search","issues_item_picker_display_in_viewport_inside_portal","issues_lazy_load_comment_box_suggestions","issues_react_bots_timeline_pagination","issues_react_chrome_container_query_fix","issues_react_prohibit_title_fallback","issues_search_type_gql","landing_pages_ninetailed","landing_pages_web_vitals_tracking","lifecycle_label_name_updates","marketing_pages_search_explore_provider","memex_default_issue_create_repository","memex_live_update_hovercard","memex_mwl_filter_field_delimiter","memex_remove_deprecated_type_issue","merge_status_header_feedback","mission_control_retry_on_401","oauth_authorize_clickjacking_protection","primer_react_css_has_selector_perf","primer_react_spinner_synchronize_animations","prs_conversations_react","prx_merge_status_button_alt_logic","pulls_q_to_filter","rules_insights_filter_bar_created","sample_network_conn_type","secret_scanning_pattern_alerts_link","session_logs_ungroup_reasoning_text","site_features_copilot_universe","site_homepage_collaborate_video","spark_prompt_secret_scanning","spark_server_connection_status","suppress_automated_browser_vitals","viewscreen_sandbox","webp_support","workbench_store_readonly"],"copilotApiOverrideUrl":"https://api.githubcopilot.com"}</script>
<script crossorigin="anonymous" type="application/javascript" src="https://github.githubassets.com/assets/high-contrast-cookie-fed1d93364101384.js"></script>
<script crossorigin="anonymous" type="application/javascript" src="https://github.githubassets.com/assets/wp-runtime-67a34eab15460b9b.js" defer="defer"></script>
<script crossorigin="anonymous" type="application/javascript" src="https://github.githubassets.com/assets/fetch-utilities-78a4114cfa572239.js" defer="defer"></script>
<script crossorigin="anonymous" type="application/javascript" src="https://github.githubassets.com/assets/85924-e131bec5f99667e1.js" defer="defer"></script>
<script crossorigin="anonymous" type="application/javascript" src="https://github.githubassets.com/assets/28839-734cb6d8a7150172.js" defer="defer"></script>
<script crossorigin="anonymous" type="application/javascript" src="https://github.githubassets.com/assets/34646-edd5528648c197b1.js" defer="defer"></script>
<script crossorigin="anonymous" type="application/javascript" src="https://github.githubassets.com/assets/environment-51c0968cf21c176d.js" defer="defer"></script>
<script crossorigin="anonymous" type="application/javascript" src="https://github.githubassets.com/assets/runtime-helpers-3bb6f7d6b7a2f531.js" defer="defer"></script>
<script crossorigin="anonymous" type="application/javascript" src="https://github.githubassets.com/assets/2966-f6796bfd155feae1.js" defer="defer"></script>
<script crossorigin="anonymous" type="application/javascript" src="https://github.githubassets.com/assets/96232-69d46a31854353d4.js" defer="defer"></script>
<script crossorigin="anonymous" type="application/javascript" src="https://github.githubassets.com/assets/41013-7a6deee6d6ff15eb.js" defer="defer"></script>
<script crossorigin="anonymous" type="application/javascript" src="https://github.githubassets.com/assets/51210-3abb7238871a5b29.js" defer="defer"></script>
<script crossorigin="anonymous" type="application/javascript" src="https://github.githubassets.com/assets/64247-7de91c52a8aca0eb.js" defer="defer"></script>
<script crossorigin="anonymous" type="application/javascript" src="https://github.githubassets.com/assets/31721-17b28a26ab4c2e02.js" defer="defer"></script>
<script crossorigin="anonymous" type="application/javascript" src="https://github.githubassets.com/assets/46740-6606b1026a237412.js" defer="defer"></script>
<script crossorigin="anonymous" type="application/javascript" src="https://github.githubassets.com/assets/39130-334926c8365e947c.js" defer="defer"></script>
<script crossorigin="anonymous" type="application/javascript" src="https://github.githubassets.com/assets/github-elements-459d4cd7a0f718d7.js" defer="defer"></script>
<script crossorigin="anonymous" type="application/javascript" src="https://github.githubassets.com/assets/element-registry-8f2ee807900dbb63.js" defer="defer"></script>
<script crossorigin="anonymous" type="application/javascript" src="https://github.githubassets.com/assets/react-core-2e47687b4310af0f.js" defer="defer"></script>
<script crossorigin="anonymous" type="application/javascript" src="https://github.githubassets.com/assets/react-lib-a4cf89fce9a1300a.js" defer="defer"></script>
<script crossorigin="anonymous" type="application/javascript" src="https://github.githubassets.com/assets/7053-fe40037405b8998b.js" defer="defer"></script>
<script crossorigin="anonymous" type="application/javascript" src="https://github.githubassets.com/assets/79039-2565b539a6ebc09b.js" defer="defer"></script>
<script crossorigin="anonymous" type="application/javascript" src="https://github.githubassets.com/assets/61110-93cf7706e5dc8bfa.js" defer="defer"></script>
<script crossorigin="anonymous" type="application/javascript" src="https://github.githubassets.com/assets/2887-47ac9a4b8862e6bf.js" defer="defer"></script>
<script crossorigin="anonymous" type="application/javascript" src="https://github.githubassets.com/assets/26533-4df1172b25427069.js" defer="defer"></script>
<script crossorigin="anonymous" type="application/javascript" src="https://github.githubassets.com/assets/66385-9fabdb6ffe6a94cf.js" defer="defer"></script>
<script crossorigin="anonymous" type="application/javascript" src="https://github.githubassets.com/assets/93716-c0d708c7899c4298.js" defer="defer"></script>
<script crossorigin="anonymous" type="application/javascript" src="https://github.githubassets.com/assets/60481-1a8127058c27e9af.js" defer="defer"></script>
<script crossorigin="anonymous" type="application/javascript" src="https://github.githubassets.com/assets/46287-a173e8d4423a732c.js" defer="defer"></script>
<script crossorigin="anonymous" type="application/javascript" src="https://github.githubassets.com/assets/2498-7a413c8209222158.js" defer="defer"></script>
<script crossorigin="anonymous" type="application/javascript" src="https://github.githubassets.com/assets/61025-40fd5e83cbe4bc66.js" defer="defer"></script>
<script crossorigin="anonymous" type="application/javascript" src="https://github.githubassets.com/assets/89627-fbbd31c43d83e10c.js" defer="defer"></script>
<script crossorigin="anonymous" type="application/javascript" src="https://github.githubassets.com/assets/49029-32f138b26aa15ad8.js" defer="defer"></script>
<script crossorigin="anonymous" type="application/javascript" src="https://github.githubassets.com/assets/99328-5e06da57c4622e21.js" defer="defer"></script>
<script crossorigin="anonymous" type="application/javascript" src="https://github.githubassets.com/assets/behaviors-9ddaeb4e06adcb60.js" defer="defer"></script>
<link crossorigin="anonymous" media="all" rel="stylesheet" href="https://github.githubassets.com/assets/react-core.d14f70276c05a07b.module.css" />
<script crossorigin="anonymous" type="application/javascript" src="https://github.githubassets.com/assets/4244-d5dcb589fae0ecbf.js" defer="defer"></script>
<script crossorigin="anonymous" type="application/javascript" src="https://github.githubassets.com/assets/notifications-global-206312e9c9776c21.js" defer="defer"></script>
<script crossorigin="anonymous" type="application/javascript" src="https://github.githubassets.com/assets/34140-bd56b738d77cb446.js" defer="defer"></script>
<script crossorigin="anonymous" type="application/javascript" src="https://github.githubassets.com/assets/code-menu-34c67a8e6616ccae.js" defer="defer"></script>
  
  <script crossorigin="anonymous" type="application/javascript" src="https://github.githubassets.com/assets/primer-react-72d2ec7521017972.js" defer="defer"></script>
<script crossorigin="anonymous" type="application/javascript" src="https://github.githubassets.com/assets/octicons-react-a181826f33dcd4d8.js" defer="defer"></script>
<script crossorigin="anonymous" type="application/javascript" src="https://github.githubassets.com/assets/87376-a8280ed29a57d4c3.js" defer="defer"></script>
<script crossorigin="anonymous" type="application/javascript" src="https://github.githubassets.com/assets/37869-a873e81f0fcb98e2.js" defer="defer"></script>
<script crossorigin="anonymous" type="application/javascript" src="https://github.githubassets.com/assets/68751-fe5cb40b5547c377.js" defer="defer"></script>
<script crossorigin="anonymous" type="application/javascript" src="https://github.githubassets.com/assets/7463-f34e26efc84a7578.js" defer="defer"></script>
<script crossorigin="anonymous" type="application/javascript" src="https://github.githubassets.com/assets/15272-00d6ef52b0f88c77.js" defer="defer"></script>
<script crossorigin="anonymous" type="application/javascript" src="https://github.githubassets.com/assets/32769-329cba91f224b6ee.js" defer="defer"></script>
<script crossorigin="anonymous" type="application/javascript" src="https://github.githubassets.com/assets/46148-0e40187c0246d203.js" defer="defer"></script>
<script crossorigin="anonymous" type="application/javascript" src="https://github.githubassets.com/assets/99849-920965235c8ccd0b.js" defer="defer"></script>
<script crossorigin="anonymous" type="application/javascript" src="https://github.githubassets.com/assets/1364-fb34d7e0e3afce8e.js" defer="defer"></script>
<script crossorigin="anonymous" type="application/javascript" src="https://github.githubassets.com/assets/73065-3db8391bce658e42.js" defer="defer"></script>
<script crossorigin="anonymous" type="application/javascript" src="https://github.githubassets.com/assets/9521-91c5deeb12670dc8.js" defer="defer"></script>
<script crossorigin="anonymous" type="application/javascript" src="https://github.githubassets.com/assets/63991-125a5c660965e63e.js" defer="defer"></script>
<script crossorigin="anonymous" type="application/javascript" src="https://github.githubassets.com/assets/73022-ba0350cffceb8489.js" defer="defer"></script>
<script crossorigin="anonymous" type="application/javascript" src="https://github.githubassets.com/assets/59852-ef8d9f97624f514a.js" defer="defer"></script>
<script crossorigin="anonymous" type="application/javascript" src="https://github.githubassets.com/assets/3624-fff636468063d5b7.js" defer="defer"></script>
<script crossorigin="anonymous" type="application/javascript" src="https://github.githubassets.com/assets/66231-1e6cc99727940110.js" defer="defer"></script>
<script crossorigin="anonymous" type="application/javascript" src="https://github.githubassets.com/assets/36600-16cb2bc7b4c03552.js" defer="defer"></script>
<script crossorigin="anonymous" type="application/javascript" src="https://github.githubassets.com/assets/33684-8c0b5018276812ee.js" defer="defer"></script>
<script crossorigin="anonymous" type="application/javascript" src="https://github.githubassets.com/assets/18222-498ac30c45b2263a.js" defer="defer"></script>
<script crossorigin="anonymous" type="application/javascript" src="https://github.githubassets.com/assets/96755-8619cf5f811a4353.js" defer="defer"></script>
<script crossorigin="anonymous" type="application/javascript" src="https://github.githubassets.com/assets/4916-50f2539dc1c5e1ee.js" defer="defer"></script>
<script crossorigin="anonymous" type="application/javascript" src="https://github.githubassets.com/assets/24787-791cfb59d6b5d03c.js" defer="defer"></script>
<script crossorigin="anonymous" type="application/javascript" src="https://github.githubassets.com/assets/17363-9d3b6dc38025c8e2.js" defer="defer"></script>
<script crossorigin="anonymous" type="application/javascript" src="https://github.githubassets.com/assets/1097-b805267515cb2087.js" defer="defer"></script>
<script crossorigin="anonymous" type="application/javascript" src="https://github.githubassets.com/assets/13333-2a2decebccdb5c1f.js" defer="defer"></script>
<script crossorigin="anonymous" type="application/javascript" src="https://github.githubassets.com/assets/5289-399a52981b09bfae.js" defer="defer"></script>
<script crossorigin="anonymous" type="application/javascript" src="https://github.githubassets.com/assets/99008-71912f84c393e8a1.js" defer="defer"></script>
<script crossorigin="anonymous" type="application/javascript" src="https://github.githubassets.com/assets/92141-d0d22dca59a46461.js" defer="defer"></script>
<script crossorigin="anonymous" type="application/javascript" src="https://github.githubassets.com/assets/29621-58d7abba98d5889c.js" defer="defer"></script>
<script crossorigin="anonymous" type="application/javascript" src="https://github.githubassets.com/assets/86923-89ea77ea52c74b25.js" defer="defer"></script>
<script crossorigin="anonymous" type="application/javascript" src="https://github.githubassets.com/assets/49972-40a4b0a31a6433a6.js" defer="defer"></script>
<script crossorigin="anonymous" type="application/javascript" src="https://github.githubassets.com/assets/42229-a1f7e8674f57cdd5.js" defer="defer"></script>
<script crossorigin="anonymous" type="application/javascript" src="https://github.githubassets.com/assets/21384-c3ff75cb40bd8ccc.js" defer="defer"></script>
<script crossorigin="anonymous" type="application/javascript" src="https://github.githubassets.com/assets/23317-cf160f1428d9be3f.js" defer="defer"></script>
<script crossorigin="anonymous" type="application/javascript" src="https://github.githubassets.com/assets/50110-4385e3caef0c7e52.js" defer="defer"></script>
<script crossorigin="anonymous" type="application/javascript" src="https://github.githubassets.com/assets/26497-3db8876731818fda.js" defer="defer"></script>
<script crossorigin="anonymous" type="application/javascript" src="https://github.githubassets.com/assets/70198-f7f1df5503683a6b.js" defer="defer"></script>
<script crossorigin="anonymous" type="application/javascript" src="https://github.githubassets.com/assets/45106-197ebc11e66a756f.js" defer="defer"></script>
<script crossorigin="anonymous" type="application/javascript" src="https://github.githubassets.com/assets/43690-54c7c87921b42753.js" defer="defer"></script>
<script crossorigin="anonymous" type="application/javascript" src="https://github.githubassets.com/assets/code-view-90c1afdaca2ddc79.js" defer="defer"></script>
<link crossorigin="anonymous" media="all" rel="stylesheet" href="https://github.githubassets.com/assets/primer-react-css.f296da2f85469022.module.css" />
<link crossorigin="anonymous" media="all" rel="stylesheet" href="https://github.githubassets.com/assets/92141.14f67539e616d3dd.module.css" />
<link crossorigin="anonymous" media="all" rel="stylesheet" href="https://github.githubassets.com/assets/70198.c01a66b33162633c.module.css" />
<link crossorigin="anonymous" media="all" rel="stylesheet" href="https://github.githubassets.com/assets/43690.58a5ccc272fc394d.module.css" />
<link crossorigin="anonymous" media="all" rel="stylesheet" href="https://github.githubassets.com/assets/code-view.35bc9ef239949c59.module.css" />

  <script crossorigin="anonymous" type="application/javascript" src="https://github.githubassets.com/assets/75999-af2e3ea53e208314.js" defer="defer"></script>
<script crossorigin="anonymous" type="application/javascript" src="https://github.githubassets.com/assets/42656-94271233114fb826.js" defer="defer"></script>
<script crossorigin="anonymous" type="application/javascript" src="https://github.githubassets.com/assets/notifications-subscriptions-menu-2037df81bb0fb115.js" defer="defer"></script>
<link crossorigin="anonymous" media="all" rel="stylesheet" href="https://github.githubassets.com/assets/primer-react-css.f296da2f85469022.module.css" />
<link crossorigin="anonymous" media="all" rel="stylesheet" href="https://github.githubassets.com/assets/notifications-subscriptions-menu.d14124df928c0132.module.css" />


  <title>models/electric-grid/physical/reference/ieee-118bus/models/ieee-118-bus.raw at master · ITI/models · GitHub</title>



  <meta name="route-pattern" content="/:user_id/:repository/blob/*name(/*path)" data-turbo-transient>
  <meta name="route-controller" content="blob" data-turbo-transient>
  <meta name="route-action" content="show" data-turbo-transient>
  <meta name="fetch-nonce" content="v2:0f9f4109-c1e9-d346-d93d-a9c0c5be978b">

    
  <meta name="current-catalog-service-hash" content="f3abb0cc802f3d7b95fc8762b94bdcb13bf39634c40c357301c4aa1d67a256fb">


  <meta name="request-id" content="9D99:3F060C:71F2F65:738F7FA:69D12955" data-pjax-transient="true"/><meta name="html-safe-nonce" content="763b269b90dacf2ae7b3da733b5d9d115c900b6274063ad3d28cdb4217e7c211" data-pjax-transient="true"/><meta name="visitor-payload" content="eyJyZWZlcnJlciI6IiIsInJlcXVlc3RfaWQiOiI5RDk5OjNGMDYwQzo3MUYyRjY1OjczOEY3RkE6NjlEMTI5NTUiLCJ2aXNpdG9yX2lkIjoiNTU4OTY5OTIxMjIyMjczNjcyNSIsInJlZ2lvbl9lZGdlIjoic2VhIiwicmVnaW9uX3JlbmRlciI6InNlYSJ9" data-pjax-transient="true"/><meta name="visitor-hmac" content="7d8fbd5f6d9269607e9aa10fe04f06b039568dfb54be27abdfd37a274b0ad157" data-pjax-transient="true"/>


    <meta name="hovercard-subject-tag" content="repository:97867995" data-turbo-transient>


  <meta name="github-keyboard-shortcuts" content="repository,source-code,file-tree,copilot" data-turbo-transient="true" />
  

  <meta name="selected-link" value="repo_source" data-turbo-transient>
  <link rel="assets" href="https://github.githubassets.com/">

    <meta name="google-site-verification" content="Apib7-x98H0j5cPqHWwSMm6dNU4GmODRoqxLiDzdx9I">

<meta name="octolytics-url" content="https://collector.github.com/github/collect" />





  <meta name="analytics-location" content="/&lt;user-name&gt;/&lt;repo-name&gt;/blob/show" data-turbo-transient="true" />

  




    <meta name="user-login" content="">

  

    <meta name="viewport" content="width=device-width">

    

      <meta name="description" content="Cyber-Physical System Models of the Grid. Contribute to ITI/models development by creating an account on GitHub.">

      <link rel="search" type="application/opensearchdescription+xml" href="/opensearch.xml" title="GitHub">

    <link rel="fluid-icon" href="https://github.com/fluidicon.png" title="GitHub">
    <meta property="fb:app_id" content="1401488693436528">
    <meta name="apple-itunes-app" content="app-id=1477376905, app-argument=https://github.com/ITI/models/blob/master/electric-grid/physical/reference/ieee-118bus/models/ieee-118-bus.raw" />

      <meta name="twitter:image" content="https://opengraph.githubassets.com/bc059a02d63ebcfb45a9f39ce2301e7d1a5a2e75e9c6d7dfe3a987f673988cb8/ITI/models" /><meta name="twitter:site" content="@github" /><meta name="twitter:card" content="summary_large_image" /><meta name="twitter:title" content="models/electric-grid/physical/reference/ieee-118bus/models/ieee-118-bus.raw at master · ITI/models" /><meta name="twitter:description" content="Cyber-Physical System Models of the Grid. Contribute to ITI/models development by creating an account on GitHub." />
  <meta property="og:image" content="https://opengraph.githubassets.com/bc059a02d63ebcfb45a9f39ce2301e7d1a5a2e75e9c6d7dfe3a987f673988cb8/ITI/models" /><meta property="og:image:alt" content="Cyber-Physical System Models of the Grid. Contribute to ITI/models development by creating an account on GitHub." /><meta property="og:image:width" content="1200" /><meta property="og:image:height" content="600" /><meta property="og:site_name" content="GitHub" /><meta property="og:type" content="object" /><meta property="og:title" content="models/electric-grid/physical/reference/ieee-118bus/models/ieee-118-bus.raw at master · ITI/models" /><meta property="og:url" content="https://github.com/ITI/models/blob/master/electric-grid/physical/reference/ieee-118bus/models/ieee-118-bus.raw" /><meta property="og:description" content="Cyber-Physical System Models of the Grid. Contribute to ITI/models development by creating an account on GitHub." />
  




      <meta name="hostname" content="github.com">



        <meta name="expected-hostname" content="github.com">


  <meta http-equiv="x-pjax-version" content="3c759e0cadaafabe531b4379854563aee804f3d11181dcb561fb96c4c5c7b91b" data-turbo-track="reload">
  <meta http-equiv="x-pjax-csp-version" content="568c098497d98702bac1642a2a853732a047a6ced28eabd3e15d50041a890235" data-turbo-track="reload">
  <meta http-equiv="x-pjax-css-version" content="20fcfbab4ff75c6eb07df12ea46a99278a956a46f28b2d7e4e7233e3a2a3251e" data-turbo-track="reload">
  <meta http-equiv="x-pjax-js-version" content="502d9b98e801910611ba25be1594fc13133f02b3e0dbde5d2479606ed76d2a07" data-turbo-track="reload">

  <meta name="turbo-cache-control" content="no-preview" data-turbo-transient="">

      <meta name="turbo-cache-control" content="no-cache" data-turbo-transient>

    <meta data-hydrostats="publish">

  <meta name="go-import" content="github.com/ITI/models git https://github.com/ITI/models.git">

  <meta name="octolytics-dimension-user_id" content="1726852" /><meta name="octolytics-dimension-user_login" content="ITI" /><meta name="octolytics-dimension-repository_id" content="97867995" /><meta name="octolytics-dimension-repository_nwo" content="ITI/models" /><meta name="octolytics-dimension-repository_public" content="true" /><meta name="octolytics-dimension-repository_is_fork" content="false" /><meta name="octolytics-dimension-repository_network_root_id" content="97867995" /><meta name="octolytics-dimension-repository_network_root_nwo" content="ITI/models" />



    

    <meta name="turbo-body-classes" content="logged-out env-production page-responsive">
  <meta name="disable-turbo" content="false">


  <meta name="browser-stats-url" content="https://api.github.com/_private/browser/stats">

  <meta name="browser-errors-url" content="https://api.github.com/_private/browser/errors">

  <meta name="release" content="64ff7bf839b5c4b417616198a39ce718226f3eb6">
  <meta name="ui-target" content="full">

  <link rel="mask-icon" href="https://github.githubassets.com/assets/pinned-octocat-093da3e6fa40.svg" color="#000000">
  <link rel="alternate icon" class="js-site-favicon" type="image/png" href="https://github.githubassets.com/favicons/favicon.png">
  <link rel="icon" class="js-site-favicon" type="image/svg+xml" href="https://github.githubassets.com/favicons/favicon.svg" data-base-href="https://github.githubassets.com/favicons/favicon">

<meta name="theme-color" content="#1e2327">
<meta name="color-scheme" content="light dark" />


  <link rel="manifest" href="/manifest.json" crossOrigin="use-credentials">

  </head>

  <body class="logged-out env-production page-responsive" style="word-wrap: break-word;" >
    <div data-turbo-body class="logged-out env-production page-responsive" style="word-wrap: break-word;" >
      <div id="__primerPortalRoot__" role="region" style="z-index: 1000; position: absolute; width: 100%;" data-turbo-permanent></div>
      

    <div class="position-relative header-wrapper js-header-wrapper ">
      <a href="#start-of-content" data-skip-target-assigned="false" class="px-2 tmp-py-4 color-bg-accent-emphasis color-fg-on-emphasis show-on-focus js-skip-to-content">Skip to content</a>

      <span data-view-component="true" class="progress-pjax-loader Progress position-fixed width-full">
    <span style="width: 0%;" data-view-component="true" class="Progress-item progress-pjax-loader-bar left-0 top-0 color-bg-accent-emphasis"></span>
</span>      
      
      <link crossorigin="anonymous" media="all" rel="stylesheet" href="https://github.githubassets.com/assets/primer-react-css.f296da2f85469022.module.css" />
<link crossorigin="anonymous" media="all" rel="stylesheet" href="https://github.githubassets.com/assets/keyboard-shortcuts-dialog.f581ff34f52b4167.module.css" />

<react-partial
  partial-name="keyboard-shortcuts-dialog"
  data-ssr="false"
  data-attempted-ssr="false"
  data-react-profiling="false"
>
  
  <script type="application/json" data-target="react-partial.embeddedData">{"props":{"docsUrl":"https://docs.github.com/get-started/accessibility/keyboard-shortcuts"}}</script>
  <div data-target="react-partial.reactRoot"></div>
</react-partial>





      

          

              
<script crossorigin="anonymous" type="application/javascript" src="https://github.githubassets.com/assets/46752-46c707717fcbe6a9.js" defer="defer"></script>
<script crossorigin="anonymous" type="application/javascript" src="https://github.githubassets.com/assets/86735-f3e914a229b8e278.js" defer="defer"></script>
<script crossorigin="anonymous" type="application/javascript" src="https://github.githubassets.com/assets/sessions-2f8b9c6ac9ed412d.js" defer="defer"></script>

<style>
  /* Override primer focus outline color for marketing header dropdown links for better contrast */
  [data-color-mode="light"] .HeaderMenu-dropdown-link:focus-visible,
  [data-color-mode="light"] .HeaderMenu-trailing-link a:focus-visible {
    outline-color: var(--color-accent-fg);
  }
</style>

<header class="HeaderMktg header-logged-out js-details-container js-header Details f4 tmp-py-3" role="banner" data-is-top="true" data-color-mode=auto data-light-theme=light data-dark-theme=dark>
  <h2 class="sr-only">Navigation Menu</h2>

  <button type="button" class="HeaderMktg-backdrop d-lg-none border-0 position-fixed top-0 left-0 width-full height-full js-details-target" aria-label="Toggle navigation">
    <span class="d-none">Toggle navigation</span>
  </button>

  <div class="d-flex flex-column flex-lg-row flex-items-center tmp-px-3 tmp-px-md-4 tmp-px-lg-5 height-full position-relative z-1">
    <div class="d-flex flex-justify-between flex-items-center width-full width-lg-auto">
      <div class="flex-1">
        <button aria-label="Toggle navigation" aria-expanded="false" type="button" data-view-component="true" class="js-details-target js-nav-padding-recalculate js-header-menu-toggle Button--link Button--medium Button d-lg-none color-fg-inherit p-1 tmp-p-1">  <span class="Button-content">
    <span class="Button-label"><div class="HeaderMenu-toggle-bar rounded my-1"></div>
            <div class="HeaderMenu-toggle-bar rounded my-1"></div>
            <div class="HeaderMenu-toggle-bar rounded my-1"></div></span>
  </span>
</button>
      </div>

      <a class="tmp-mr-lg-3 color-fg-inherit flex-order-2 js-prevent-focus-on-mobile-nav"
        href="/"
        aria-label="Homepage"
        data-analytics-event="{&quot;category&quot;:&quot;Marketing nav&quot;,&quot;action&quot;:&quot;click to go to homepage&quot;,&quot;label&quot;:&quot;ref_page:Marketing;ref_cta:Logomark;ref_loc:Header&quot;}">
        <svg height="32" aria-hidden="true" viewBox="0 0 24 24" version="1.1" width="32" data-view-component="true" class="octicon octicon-mark-github">
    <path d="M10.226 17.284c-2.965-.36-5.054-2.493-5.054-5.256 0-1.123.404-2.336 1.078-3.144-.292-.741-.247-2.314.09-2.965.898-.112 2.111.36 2.83 1.01.853-.269 1.752-.404 2.853-.404 1.1 0 1.999.135 2.807.382.696-.629 1.932-1.1 2.83-.988.315.606.36 2.179.067 2.942.72.854 1.101 2 1.101 3.167 0 2.763-2.089 4.852-5.098 5.234.763.494 1.28 1.572 1.28 2.807v2.336c0 .674.561 1.056 1.235.786 4.066-1.55 7.255-5.615 7.255-10.646C23.5 6.188 18.334 1 11.978 1 5.62 1 .5 6.188.5 12.545c0 4.986 3.167 9.12 7.435 10.669.606.225 1.19-.18 1.19-.786V20.63a2.9 2.9 0 0 1-1.078.224c-1.483 0-2.359-.808-2.987-2.313-.247-.607-.517-.966-1.034-1.033-.27-.023-.359-.135-.359-.27 0-.27.45-.471.898-.471.652 0 1.213.404 1.797 1.235.45.651.921.943 1.483.943.561 0 .92-.202 1.437-.719.382-.381.674-.718.944-.943"></path>
</svg>
      </a>

      <div class="d-flex flex-1 flex-order-2 text-right d-lg-none gap-2 flex-justify-end">
          <a
            href="/login?return_to=https%3A%2F%2Fgithub.com%2FITI%2Fmodels%2Fblob%2Fmaster%2Felectric-grid%2Fphysical%2Freference%2Fieee-118bus%2Fmodels%2Fieee-118-bus.raw"
            class="HeaderMenu-link HeaderMenu-button d-inline-flex f5 no-underline border color-border-default rounded-2 px-2 py-1 color-fg-inherit js-prevent-focus-on-mobile-nav"
            data-hydro-click="{&quot;event_type&quot;:&quot;authentication.click&quot;,&quot;payload&quot;:{&quot;location_in_page&quot;:&quot;site header menu&quot;,&quot;repository_id&quot;:null,&quot;auth_type&quot;:&quot;SIGN_UP&quot;,&quot;originating_url&quot;:&quot;https://github.com/ITI/models/blob/master/electric-grid/physical/reference/ieee-118bus/models/ieee-118-bus.raw&quot;,&quot;user_id&quot;:null}}" data-hydro-click-hmac="ed496adba07c7bbd04d3fd0ec2a6695ce7bf1353c772aa4cd03c9bb19f28acff"
            data-analytics-event="{&quot;category&quot;:&quot;Marketing nav&quot;,&quot;action&quot;:&quot;click to Sign in&quot;,&quot;label&quot;:&quot;ref_page:Marketing;ref_cta:Sign in;ref_loc:Header&quot;}"
          >
            Sign in
          </a>
              <div class="AppHeader-appearanceSettings">
    <react-partial-anchor>
      <button data-target="react-partial-anchor.anchor" id="icon-button-93b5565a-cfb4-4a82-8dc9-bf68e84db0da" aria-labelledby="tooltip-82de42fd-5646-470c-bbc7-7f2bebcb31fc" type="button" disabled="disabled" data-view-component="true" class="Button Button--iconOnly Button--invisible Button--medium AppHeader-button HeaderMenu-link border cursor-wait">  <svg aria-hidden="true" height="16" viewBox="0 0 16 16" version="1.1" width="16" data-view-component="true" class="octicon octicon-sliders Button-visual">
    <path d="M15 2.75a.75.75 0 0 1-.75.75h-4a.75.75 0 0 1 0-1.5h4a.75.75 0 0 1 .75.75Zm-8.5.75v1.25a.75.75 0 0 0 1.5 0v-4a.75.75 0 0 0-1.5 0V2H1.75a.75.75 0 0 0 0 1.5H6.5Zm1.25 5.25a.75.75 0 0 0 0-1.5h-6a.75.75 0 0 0 0 1.5h6ZM15 8a.75.75 0 0 1-.75.75H11.5V10a.75.75 0 1 1-1.5 0V6a.75.75 0 0 1 1.5 0v1.25h2.75A.75.75 0 0 1 15 8Zm-9 5.25v-2a.75.75 0 0 0-1.5 0v1.25H1.75a.75.75 0 0 0 0 1.5H4.5v1.25a.75.75 0 0 0 1.5 0v-2Zm9 0a.75.75 0 0 1-.75.75h-6a.75.75 0 0 1 0-1.5h6a.75.75 0 0 1 .75.75Z"></path>
</svg>
</button><tool-tip id="tooltip-82de42fd-5646-470c-bbc7-7f2bebcb31fc" for="icon-button-93b5565a-cfb4-4a82-8dc9-bf68e84db0da" popover="manual" data-direction="s" data-type="label" data-view-component="true" class="sr-only position-absolute">Appearance settings</tool-tip>

      <template data-target="react-partial-anchor.template">
        <link crossorigin="anonymous" media="all" rel="stylesheet" href="https://github.githubassets.com/assets/primer-react-css.f296da2f85469022.module.css" />
<link crossorigin="anonymous" media="all" rel="stylesheet" href="https://github.githubassets.com/assets/appearance-settings.6f14ff9973550c9e.module.css" />

<react-partial
  partial-name="appearance-settings"
  data-ssr="false"
  data-attempted-ssr="false"
  data-react-profiling="false"
>
  
  <script type="application/json" data-target="react-partial.embeddedData">{"props":{}}</script>
  <div data-target="react-partial.reactRoot"></div>
</react-partial>


      </template>
    </react-partial-anchor>
  </div>

      </div>
    </div>


    <div class="HeaderMenu js-header-menu height-fit position-lg-relative d-lg-flex flex-column flex-auto top-0">
      <div class="HeaderMenu-wrapper d-flex flex-column flex-self-start flex-lg-row flex-auto rounded rounded-lg-0">
            <link crossorigin="anonymous" media="all" rel="stylesheet" href="https://github.githubassets.com/assets/primer-react-css.f296da2f85469022.module.css" />
<link crossorigin="anonymous" media="all" rel="stylesheet" href="https://github.githubassets.com/assets/marketing-navigation.5b4138cab2f44179.module.css" />

<react-partial
  partial-name="marketing-navigation"
  data-ssr="true"
  data-attempted-ssr="true"
  data-react-profiling="false"
>
  
  <script type="application/json" data-target="react-partial.embeddedData">{"props":{"should_use_dotcom_links":true}}</script>
...